* NGSPICE file created from user_analog_project_wrapper.ext - technology: sky130A

.subckt sky130_fd_sc_hd__decap_12 VGND VPWR VNB VPB
X0 VPWR VGND VPWR VPB sky130_fd_pr__pfet_01v8_hvt ad=0p pd=0u as=0p ps=0u w=870000u l=4.73e+06u
X1 VGND VPWR VGND VNB sky130_fd_pr__nfet_01v8 ad=0p pd=0u as=0p ps=0u w=550000u l=4.73e+06u
.ends

.subckt sky130_fd_sc_hd__clkbuf_1 VGND VPWR X A VNB VPB
X0 VPWR a_75_212# X VPB sky130_fd_pr__pfet_01v8_hvt ad=0p pd=0u as=0p ps=0u w=790000u l=150000u
X1 a_75_212# A VGND VNB sky130_fd_pr__nfet_01v8 ad=0p pd=0u as=0p ps=0u w=520000u l=150000u
X2 a_75_212# A VPWR VPB sky130_fd_pr__pfet_01v8_hvt ad=0p pd=0u as=0p ps=0u w=790000u l=150000u
X3 VGND a_75_212# X VNB sky130_fd_pr__nfet_01v8 ad=0p pd=0u as=0p ps=0u w=520000u l=150000u
.ends

.subckt sky130_fd_sc_hd__clkinv_1 Y A VGND VPWR VNB VPB
X0 Y A VPWR VPB sky130_fd_pr__pfet_01v8_hvt ad=0p pd=0u as=0p ps=0u w=840000u l=150000u
X1 VGND A Y VNB sky130_fd_pr__nfet_01v8 ad=0p pd=0u as=0p ps=0u w=420000u l=150000u
X2 VPWR A Y VPB sky130_fd_pr__pfet_01v8_hvt ad=0p pd=0u as=0p ps=0u w=840000u l=150000u
.ends

.subckt sky130_fd_sc_hd__nand2_1 Y B A VGND VPWR VNB VPB
X0 VPWR A Y VPB sky130_fd_pr__pfet_01v8_hvt ad=0p pd=0u as=0p ps=0u w=1e+06u l=150000u
X1 Y A a_113_47# VNB sky130_fd_pr__nfet_01v8 ad=0p pd=0u as=0p ps=0u w=650000u l=150000u
X2 a_113_47# B VGND VNB sky130_fd_pr__nfet_01v8 ad=0p pd=0u as=0p ps=0u w=650000u l=150000u
X3 Y B VPWR VPB sky130_fd_pr__pfet_01v8_hvt ad=0p pd=0u as=0p ps=0u w=1e+06u l=150000u
.ends

.subckt sky130_fd_sc_hd__clkbuf_8 X A VGND VPWR VNB VPB
X0 VPWR A a_110_47# VPB sky130_fd_pr__pfet_01v8_hvt ad=0p pd=0u as=0p ps=0u w=1e+06u l=150000u
X1 VPWR a_110_47# X VPB sky130_fd_pr__pfet_01v8_hvt ad=0p pd=0u as=0p ps=0u w=1e+06u l=150000u
X2 X a_110_47# VPWR VPB sky130_fd_pr__pfet_01v8_hvt ad=0p pd=0u as=0p ps=0u w=1e+06u l=150000u
X3 a_110_47# A VPWR VPB sky130_fd_pr__pfet_01v8_hvt ad=0p pd=0u as=0p ps=0u w=1e+06u l=150000u
X4 X a_110_47# VGND VNB sky130_fd_pr__nfet_01v8 ad=0p pd=0u as=0p ps=0u w=420000u l=150000u
X5 X a_110_47# VPWR VPB sky130_fd_pr__pfet_01v8_hvt ad=0p pd=0u as=0p ps=0u w=1e+06u l=150000u
X6 VGND a_110_47# X VNB sky130_fd_pr__nfet_01v8 ad=0p pd=0u as=0p ps=0u w=420000u l=150000u
X7 VPWR a_110_47# X VPB sky130_fd_pr__pfet_01v8_hvt ad=0p pd=0u as=0p ps=0u w=1e+06u l=150000u
X8 VGND A a_110_47# VNB sky130_fd_pr__nfet_01v8 ad=0p pd=0u as=0p ps=0u w=420000u l=150000u
X9 VGND a_110_47# X VNB sky130_fd_pr__nfet_01v8 ad=0p pd=0u as=0p ps=0u w=420000u l=150000u
X10 a_110_47# A VGND VNB sky130_fd_pr__nfet_01v8 ad=0p pd=0u as=0p ps=0u w=420000u l=150000u
X11 VPWR a_110_47# X VPB sky130_fd_pr__pfet_01v8_hvt ad=0p pd=0u as=0p ps=0u w=1e+06u l=150000u
X12 X a_110_47# VPWR VPB sky130_fd_pr__pfet_01v8_hvt ad=0p pd=0u as=0p ps=0u w=1e+06u l=150000u
X13 VGND a_110_47# X VNB sky130_fd_pr__nfet_01v8 ad=0p pd=0u as=0p ps=0u w=420000u l=150000u
X14 VGND a_110_47# X VNB sky130_fd_pr__nfet_01v8 ad=0p pd=0u as=0p ps=0u w=420000u l=150000u
X15 X a_110_47# VPWR VPB sky130_fd_pr__pfet_01v8_hvt ad=0p pd=0u as=0p ps=0u w=1e+06u l=150000u
X16 X a_110_47# VGND VNB sky130_fd_pr__nfet_01v8 ad=0p pd=0u as=0p ps=0u w=420000u l=150000u
X17 VPWR a_110_47# X VPB sky130_fd_pr__pfet_01v8_hvt ad=0p pd=0u as=0p ps=0u w=1e+06u l=150000u
X18 X a_110_47# VGND VNB sky130_fd_pr__nfet_01v8 ad=0p pd=0u as=0p ps=0u w=420000u l=150000u
X19 X a_110_47# VGND VNB sky130_fd_pr__nfet_01v8 ad=0p pd=0u as=0p ps=0u w=420000u l=150000u
.ends

.subckt sky130_fd_sc_hd__clkinv_8 Y A VGND VPWR VNB VPB
X0 Y A VGND VNB sky130_fd_pr__nfet_01v8 ad=0p pd=0u as=0p ps=0u w=420000u l=150000u
X1 VPWR A Y VPB sky130_fd_pr__pfet_01v8_hvt ad=0p pd=0u as=0p ps=0u w=1e+06u l=150000u
X2 Y A VGND VNB sky130_fd_pr__nfet_01v8 ad=0p pd=0u as=0p ps=0u w=420000u l=150000u
X3 Y A VGND VNB sky130_fd_pr__nfet_01v8 ad=0p pd=0u as=0p ps=0u w=420000u l=150000u
X4 Y A VPWR VPB sky130_fd_pr__pfet_01v8_hvt ad=0p pd=0u as=0p ps=0u w=1e+06u l=150000u
X5 VPWR A Y VPB sky130_fd_pr__pfet_01v8_hvt ad=0p pd=0u as=0p ps=0u w=1e+06u l=150000u
X6 VPWR A Y VPB sky130_fd_pr__pfet_01v8_hvt ad=0p pd=0u as=0p ps=0u w=1e+06u l=150000u
X7 Y A VGND VNB sky130_fd_pr__nfet_01v8 ad=0p pd=0u as=0p ps=0u w=420000u l=150000u
X8 Y A VPWR VPB sky130_fd_pr__pfet_01v8_hvt ad=0p pd=0u as=0p ps=0u w=1e+06u l=150000u
X9 VGND A Y VNB sky130_fd_pr__nfet_01v8 ad=0p pd=0u as=0p ps=0u w=420000u l=150000u
X10 Y A VPWR VPB sky130_fd_pr__pfet_01v8_hvt ad=0p pd=0u as=0p ps=0u w=1e+06u l=150000u
X11 VPWR A Y VPB sky130_fd_pr__pfet_01v8_hvt ad=0p pd=0u as=0p ps=0u w=1e+06u l=150000u
X12 VGND A Y VNB sky130_fd_pr__nfet_01v8 ad=0p pd=0u as=0p ps=0u w=420000u l=150000u
X13 VPWR A Y VPB sky130_fd_pr__pfet_01v8_hvt ad=0p pd=0u as=0p ps=0u w=1e+06u l=150000u
X14 Y A VPWR VPB sky130_fd_pr__pfet_01v8_hvt ad=0p pd=0u as=0p ps=0u w=1e+06u l=150000u
X15 VGND A Y VNB sky130_fd_pr__nfet_01v8 ad=0p pd=0u as=0p ps=0u w=420000u l=150000u
X16 VPWR A Y VPB sky130_fd_pr__pfet_01v8_hvt ad=0p pd=0u as=0p ps=0u w=1e+06u l=150000u
X17 Y A VPWR VPB sky130_fd_pr__pfet_01v8_hvt ad=0p pd=0u as=0p ps=0u w=1e+06u l=150000u
X18 Y A VPWR VPB sky130_fd_pr__pfet_01v8_hvt ad=0p pd=0u as=0p ps=0u w=1e+06u l=150000u
X19 VGND A Y VNB sky130_fd_pr__nfet_01v8 ad=0p pd=0u as=0p ps=0u w=420000u l=150000u
.ends

.subckt sky130_fd_sc_hd__dfrtp_2 Q RESET_B D CLK VGND VPWR VNB VPB
X0 a_1217_47# a_27_47# a_1108_47# VNB sky130_fd_pr__nfet_01v8 ad=0p pd=0u as=0p ps=0u w=360000u l=150000u
X1 a_805_47# a_761_289# a_639_47# VNB sky130_fd_pr__nfet_01v8 ad=0p pd=0u as=0p ps=0u w=420000u l=150000u
X2 VGND a_1283_21# Q VNB sky130_fd_pr__nfet_01v8 ad=0p pd=0u as=0p ps=0u w=650000u l=150000u
X3 a_1108_47# a_193_47# a_761_289# VNB sky130_fd_pr__nfet_01v8 ad=0p pd=0u as=0p ps=0u w=360000u l=150000u
X4 a_1283_21# a_1108_47# a_1462_47# VNB sky130_fd_pr__nfet_01v8 ad=0p pd=0u as=0p ps=0u w=420000u l=150000u
X5 a_651_413# a_27_47# a_543_47# VPB sky130_fd_pr__pfet_01v8_hvt ad=0p pd=0u as=0p ps=0u w=420000u l=150000u
X6 VPWR a_1283_21# Q VPB sky130_fd_pr__pfet_01v8_hvt ad=0p pd=0u as=0p ps=0u w=1e+06u l=150000u
X7 VGND RESET_B a_805_47# VNB sky130_fd_pr__nfet_01v8 ad=0p pd=0u as=0p ps=0u w=420000u l=150000u
X8 Q a_1283_21# VPWR VPB sky130_fd_pr__pfet_01v8_hvt ad=0p pd=0u as=0p ps=0u w=1e+06u l=150000u
X9 VPWR CLK a_27_47# VPB sky130_fd_pr__pfet_01v8_hvt ad=0p pd=0u as=0p ps=0u w=640000u l=150000u
X10 a_448_47# D VPWR VPB sky130_fd_pr__pfet_01v8_hvt ad=0p pd=0u as=0p ps=0u w=420000u l=150000u
X11 a_761_289# a_543_47# VGND VNB sky130_fd_pr__nfet_01v8 ad=0p pd=0u as=0p ps=0u w=640000u l=150000u
X12 a_193_47# a_27_47# VGND VNB sky130_fd_pr__nfet_01v8 ad=0p pd=0u as=0p ps=0u w=420000u l=150000u
X13 a_1108_47# a_27_47# a_761_289# VPB sky130_fd_pr__pfet_01v8_hvt ad=0p pd=0u as=0p ps=0u w=420000u l=150000u
X14 a_543_47# a_27_47# a_448_47# VNB sky130_fd_pr__nfet_01v8 ad=0p pd=0u as=0p ps=0u w=360000u l=150000u
X15 a_1462_47# RESET_B VGND VNB sky130_fd_pr__nfet_01v8 ad=0p pd=0u as=0p ps=0u w=420000u l=150000u
X16 a_543_47# a_193_47# a_448_47# VPB sky130_fd_pr__pfet_01v8_hvt ad=0p pd=0u as=0p ps=0u w=420000u l=150000u
X17 a_448_47# D VGND VNB sky130_fd_pr__nfet_01v8 ad=0p pd=0u as=0p ps=0u w=420000u l=150000u
X18 VPWR a_1283_21# a_1270_413# VPB sky130_fd_pr__pfet_01v8_hvt ad=0p pd=0u as=0p ps=0u w=420000u l=150000u
X19 VPWR a_1108_47# a_1283_21# VPB sky130_fd_pr__pfet_01v8_hvt ad=0p pd=0u as=0p ps=0u w=420000u l=150000u
X20 a_1270_413# a_193_47# a_1108_47# VPB sky130_fd_pr__pfet_01v8_hvt ad=0p pd=0u as=0p ps=0u w=420000u l=150000u
X21 a_193_47# a_27_47# VPWR VPB sky130_fd_pr__pfet_01v8_hvt ad=0p pd=0u as=0p ps=0u w=640000u l=150000u
X22 a_1283_21# RESET_B VPWR VPB sky130_fd_pr__pfet_01v8_hvt ad=0p pd=0u as=0p ps=0u w=420000u l=150000u
X23 VPWR a_761_289# a_651_413# VPB sky130_fd_pr__pfet_01v8_hvt ad=0p pd=0u as=0p ps=0u w=420000u l=150000u
X24 Q a_1283_21# VGND VNB sky130_fd_pr__nfet_01v8 ad=0p pd=0u as=0p ps=0u w=650000u l=150000u
X25 a_639_47# a_193_47# a_543_47# VNB sky130_fd_pr__nfet_01v8 ad=0p pd=0u as=0p ps=0u w=360000u l=150000u
X26 VGND a_1283_21# a_1217_47# VNB sky130_fd_pr__nfet_01v8 ad=0p pd=0u as=0p ps=0u w=420000u l=150000u
X27 a_651_413# RESET_B VPWR VPB sky130_fd_pr__pfet_01v8_hvt ad=0p pd=0u as=0p ps=0u w=420000u l=150000u
X28 VGND CLK a_27_47# VNB sky130_fd_pr__nfet_01v8 ad=0p pd=0u as=0p ps=0u w=420000u l=150000u
X29 a_761_289# a_543_47# VPWR VPB sky130_fd_pr__pfet_01v8_hvt ad=0p pd=0u as=0p ps=0u w=840000u l=150000u
.ends

.subckt sky130_fd_sc_hd__buf_8 A X VGND VPWR VNB VPB
X0 X a_27_47# VGND VNB sky130_fd_pr__nfet_01v8 ad=0p pd=0u as=0p ps=0u w=650000u l=150000u
X1 X a_27_47# VGND VNB sky130_fd_pr__nfet_01v8 ad=0p pd=0u as=0p ps=0u w=650000u l=150000u
X2 X a_27_47# VGND VNB sky130_fd_pr__nfet_01v8 ad=0p pd=0u as=0p ps=0u w=650000u l=150000u
X3 VPWR a_27_47# X VPB sky130_fd_pr__pfet_01v8_hvt ad=0p pd=0u as=0p ps=0u w=1e+06u l=150000u
X4 X a_27_47# VPWR VPB sky130_fd_pr__pfet_01v8_hvt ad=0p pd=0u as=0p ps=0u w=1e+06u l=150000u
X5 VGND a_27_47# X VNB sky130_fd_pr__nfet_01v8 ad=0p pd=0u as=0p ps=0u w=650000u l=150000u
X6 VPWR A a_27_47# VPB sky130_fd_pr__pfet_01v8_hvt ad=0p pd=0u as=0p ps=0u w=1e+06u l=150000u
X7 VPWR a_27_47# X VPB sky130_fd_pr__pfet_01v8_hvt ad=0p pd=0u as=0p ps=0u w=1e+06u l=150000u
X8 a_27_47# A VPWR VPB sky130_fd_pr__pfet_01v8_hvt ad=0p pd=0u as=0p ps=0u w=1e+06u l=150000u
X9 X a_27_47# VPWR VPB sky130_fd_pr__pfet_01v8_hvt ad=0p pd=0u as=0p ps=0u w=1e+06u l=150000u
X10 a_27_47# A VGND VNB sky130_fd_pr__nfet_01v8 ad=0p pd=0u as=0p ps=0u w=650000u l=150000u
X11 X a_27_47# VGND VNB sky130_fd_pr__nfet_01v8 ad=0p pd=0u as=0p ps=0u w=650000u l=150000u
X12 VPWR a_27_47# X VPB sky130_fd_pr__pfet_01v8_hvt ad=0p pd=0u as=0p ps=0u w=1e+06u l=150000u
X13 X a_27_47# VPWR VPB sky130_fd_pr__pfet_01v8_hvt ad=0p pd=0u as=0p ps=0u w=1e+06u l=150000u
X14 VGND A a_27_47# VNB sky130_fd_pr__nfet_01v8 ad=0p pd=0u as=0p ps=0u w=650000u l=150000u
X15 VGND a_27_47# X VNB sky130_fd_pr__nfet_01v8 ad=0p pd=0u as=0p ps=0u w=650000u l=150000u
X16 VPWR a_27_47# X VPB sky130_fd_pr__pfet_01v8_hvt ad=0p pd=0u as=0p ps=0u w=1e+06u l=150000u
X17 VGND a_27_47# X VNB sky130_fd_pr__nfet_01v8 ad=0p pd=0u as=0p ps=0u w=650000u l=150000u
X18 VGND a_27_47# X VNB sky130_fd_pr__nfet_01v8 ad=0p pd=0u as=0p ps=0u w=650000u l=150000u
X19 X a_27_47# VPWR VPB sky130_fd_pr__pfet_01v8_hvt ad=0p pd=0u as=0p ps=0u w=1e+06u l=150000u
X20 VPWR A a_27_47# VPB sky130_fd_pr__pfet_01v8_hvt ad=0p pd=0u as=0p ps=0u w=1e+06u l=150000u
X21 VGND A a_27_47# VNB sky130_fd_pr__nfet_01v8 ad=0p pd=0u as=0p ps=0u w=650000u l=150000u
.ends

.subckt sky130_fd_sc_hd__nor2_1 B Y A VGND VPWR VNB VPB a_109_297#
X0 VPWR A a_109_297# VPB sky130_fd_pr__pfet_01v8_hvt ad=0p pd=0u as=0p ps=0u w=1e+06u l=150000u
X1 VGND A Y VNB sky130_fd_pr__nfet_01v8 ad=0p pd=0u as=0p ps=0u w=650000u l=150000u
X2 a_109_297# B Y VPB sky130_fd_pr__pfet_01v8_hvt ad=0p pd=0u as=0p ps=0u w=1e+06u l=150000u
X3 Y B VGND VNB sky130_fd_pr__nfet_01v8 ad=0p pd=0u as=0p ps=0u w=650000u l=150000u
.ends

.subckt sky130_fd_sc_hd__clkbuf_4 X A VGND VPWR VNB VPB
X0 VPWR A a_27_47# VPB sky130_fd_pr__pfet_01v8_hvt ad=0p pd=0u as=0p ps=0u w=1e+06u l=150000u
X1 VGND a_27_47# X VNB sky130_fd_pr__nfet_01v8 ad=0p pd=0u as=0p ps=0u w=420000u l=150000u
X2 VGND a_27_47# X VNB sky130_fd_pr__nfet_01v8 ad=0p pd=0u as=0p ps=0u w=420000u l=150000u
X3 X a_27_47# VPWR VPB sky130_fd_pr__pfet_01v8_hvt ad=0p pd=0u as=0p ps=0u w=1e+06u l=150000u
X4 X a_27_47# VGND VNB sky130_fd_pr__nfet_01v8 ad=0p pd=0u as=0p ps=0u w=420000u l=150000u
X5 VGND A a_27_47# VNB sky130_fd_pr__nfet_01v8 ad=0p pd=0u as=0p ps=0u w=420000u l=150000u
X6 VPWR a_27_47# X VPB sky130_fd_pr__pfet_01v8_hvt ad=0p pd=0u as=0p ps=0u w=1e+06u l=150000u
X7 X a_27_47# VGND VNB sky130_fd_pr__nfet_01v8 ad=0p pd=0u as=0p ps=0u w=420000u l=150000u
X8 X a_27_47# VPWR VPB sky130_fd_pr__pfet_01v8_hvt ad=0p pd=0u as=0p ps=0u w=1e+06u l=150000u
X9 VPWR a_27_47# X VPB sky130_fd_pr__pfet_01v8_hvt ad=0p pd=0u as=0p ps=0u w=1e+06u l=150000u
.ends

.subckt sky130_fd_sc_hd__clkinv_4 A Y VPWR VGND VNB VPB
X0 Y A VPWR VPB sky130_fd_pr__pfet_01v8_hvt ad=0p pd=0u as=0p ps=0u w=1e+06u l=150000u
X1 VGND A Y VNB sky130_fd_pr__nfet_01v8 ad=0p pd=0u as=0p ps=0u w=420000u l=150000u
X2 VGND A Y VNB sky130_fd_pr__nfet_01v8 ad=0p pd=0u as=0p ps=0u w=420000u l=150000u
X3 VPWR A Y VPB sky130_fd_pr__pfet_01v8_hvt ad=0p pd=0u as=0p ps=0u w=1e+06u l=150000u
X4 VPWR A Y VPB sky130_fd_pr__pfet_01v8_hvt ad=0p pd=0u as=0p ps=0u w=1e+06u l=150000u
X5 Y A VGND VNB sky130_fd_pr__nfet_01v8 ad=0p pd=0u as=0p ps=0u w=420000u l=150000u
X6 Y A VPWR VPB sky130_fd_pr__pfet_01v8_hvt ad=0p pd=0u as=0p ps=0u w=1e+06u l=150000u
X7 Y A VGND VNB sky130_fd_pr__nfet_01v8 ad=0p pd=0u as=0p ps=0u w=420000u l=150000u
X8 Y A VPWR VPB sky130_fd_pr__pfet_01v8_hvt ad=0p pd=0u as=0p ps=0u w=1e+06u l=150000u
X9 VPWR A Y VPB sky130_fd_pr__pfet_01v8_hvt ad=0p pd=0u as=0p ps=0u w=1e+06u l=150000u
.ends

.subckt sky130_fd_sc_hd__buf_6 VPWR VGND X A VNB VPB
X0 VPWR a_161_47# X VPB sky130_fd_pr__pfet_01v8_hvt ad=0p pd=0u as=0p ps=0u w=1e+06u l=150000u
X1 a_161_47# A VGND VNB sky130_fd_pr__nfet_01v8 ad=0p pd=0u as=0p ps=0u w=650000u l=150000u
X2 X a_161_47# VPWR VPB sky130_fd_pr__pfet_01v8_hvt ad=0p pd=0u as=0p ps=0u w=1e+06u l=150000u
X3 VPWR a_161_47# X VPB sky130_fd_pr__pfet_01v8_hvt ad=0p pd=0u as=0p ps=0u w=1e+06u l=150000u
X4 VGND A a_161_47# VNB sky130_fd_pr__nfet_01v8 ad=0p pd=0u as=0p ps=0u w=650000u l=150000u
X5 X a_161_47# VPWR VPB sky130_fd_pr__pfet_01v8_hvt ad=0p pd=0u as=0p ps=0u w=1e+06u l=150000u
X6 VGND a_161_47# X VNB sky130_fd_pr__nfet_01v8 ad=0p pd=0u as=0p ps=0u w=650000u l=150000u
X7 VGND a_161_47# X VNB sky130_fd_pr__nfet_01v8 ad=0p pd=0u as=0p ps=0u w=650000u l=150000u
X8 VPWR a_161_47# X VPB sky130_fd_pr__pfet_01v8_hvt ad=0p pd=0u as=0p ps=0u w=1e+06u l=150000u
X9 X a_161_47# VPWR VPB sky130_fd_pr__pfet_01v8_hvt ad=0p pd=0u as=0p ps=0u w=1e+06u l=150000u
X10 X a_161_47# VGND VNB sky130_fd_pr__nfet_01v8 ad=0p pd=0u as=0p ps=0u w=650000u l=150000u
X11 X a_161_47# VGND VNB sky130_fd_pr__nfet_01v8 ad=0p pd=0u as=0p ps=0u w=650000u l=150000u
X12 X a_161_47# VGND VNB sky130_fd_pr__nfet_01v8 ad=0p pd=0u as=0p ps=0u w=650000u l=150000u
X13 VPWR A a_161_47# VPB sky130_fd_pr__pfet_01v8_hvt ad=0p pd=0u as=0p ps=0u w=1e+06u l=150000u
X14 VGND a_161_47# X VNB sky130_fd_pr__nfet_01v8 ad=0p pd=0u as=0p ps=0u w=650000u l=150000u
X15 a_161_47# A VPWR VPB sky130_fd_pr__pfet_01v8_hvt ad=0p pd=0u as=0p ps=0u w=1e+06u l=150000u
.ends

.subckt sky130_fd_sc_hd__inv_6 Y A VPWR VGND VNB VPB
X0 VPWR A Y VPB sky130_fd_pr__pfet_01v8_hvt ad=0p pd=0u as=0p ps=0u w=1e+06u l=150000u
X1 Y A VPWR VPB sky130_fd_pr__pfet_01v8_hvt ad=0p pd=0u as=0p ps=0u w=1e+06u l=150000u
X2 Y A VGND VNB sky130_fd_pr__nfet_01v8 ad=0p pd=0u as=0p ps=0u w=650000u l=150000u
X3 VPWR A Y VPB sky130_fd_pr__pfet_01v8_hvt ad=0p pd=0u as=0p ps=0u w=1e+06u l=150000u
X4 Y A VPWR VPB sky130_fd_pr__pfet_01v8_hvt ad=0p pd=0u as=0p ps=0u w=1e+06u l=150000u
X5 VPWR A Y VPB sky130_fd_pr__pfet_01v8_hvt ad=0p pd=0u as=0p ps=0u w=1e+06u l=150000u
X6 Y A VGND VNB sky130_fd_pr__nfet_01v8 ad=0p pd=0u as=0p ps=0u w=650000u l=150000u
X7 Y A VGND VNB sky130_fd_pr__nfet_01v8 ad=0p pd=0u as=0p ps=0u w=650000u l=150000u
X8 Y A VPWR VPB sky130_fd_pr__pfet_01v8_hvt ad=0p pd=0u as=0p ps=0u w=1e+06u l=150000u
X9 VGND A Y VNB sky130_fd_pr__nfet_01v8 ad=0p pd=0u as=0p ps=0u w=650000u l=150000u
X10 VGND A Y VNB sky130_fd_pr__nfet_01v8 ad=0p pd=0u as=0p ps=0u w=650000u l=150000u
X11 VGND A Y VNB sky130_fd_pr__nfet_01v8 ad=0p pd=0u as=0p ps=0u w=650000u l=150000u
.ends

.subckt sky130_fd_sc_hd__inv_16 Y A VGND VPWR VNB VPB
X0 Y A VPWR VPB sky130_fd_pr__pfet_01v8_hvt ad=0p pd=0u as=0p ps=0u w=1e+06u l=150000u
X1 VPWR A Y VPB sky130_fd_pr__pfet_01v8_hvt ad=0p pd=0u as=0p ps=0u w=1e+06u l=150000u
X2 VGND A Y VNB sky130_fd_pr__nfet_01v8 ad=0p pd=0u as=0p ps=0u w=650000u l=150000u
X3 Y A VPWR VPB sky130_fd_pr__pfet_01v8_hvt ad=0p pd=0u as=0p ps=0u w=1e+06u l=150000u
X4 VGND A Y VNB sky130_fd_pr__nfet_01v8 ad=0p pd=0u as=0p ps=0u w=650000u l=150000u
X5 VGND A Y VNB sky130_fd_pr__nfet_01v8 ad=0p pd=0u as=0p ps=0u w=650000u l=150000u
X6 Y A VPWR VPB sky130_fd_pr__pfet_01v8_hvt ad=0p pd=0u as=0p ps=0u w=1e+06u l=150000u
X7 VGND A Y VNB sky130_fd_pr__nfet_01v8 ad=0p pd=0u as=0p ps=0u w=650000u l=150000u
X8 VPWR A Y VPB sky130_fd_pr__pfet_01v8_hvt ad=0p pd=0u as=0p ps=0u w=1e+06u l=150000u
X9 Y A VGND VNB sky130_fd_pr__nfet_01v8 ad=0p pd=0u as=0p ps=0u w=650000u l=150000u
X10 VPWR A Y VPB sky130_fd_pr__pfet_01v8_hvt ad=0p pd=0u as=0p ps=0u w=1e+06u l=150000u
X11 Y A VGND VNB sky130_fd_pr__nfet_01v8 ad=0p pd=0u as=0p ps=0u w=650000u l=150000u
X12 Y A VPWR VPB sky130_fd_pr__pfet_01v8_hvt ad=0p pd=0u as=0p ps=0u w=1e+06u l=150000u
X13 VPWR A Y VPB sky130_fd_pr__pfet_01v8_hvt ad=0p pd=0u as=0p ps=0u w=1e+06u l=150000u
X14 Y A VPWR VPB sky130_fd_pr__pfet_01v8_hvt ad=0p pd=0u as=0p ps=0u w=1e+06u l=150000u
X15 VGND A Y VNB sky130_fd_pr__nfet_01v8 ad=0p pd=0u as=0p ps=0u w=650000u l=150000u
X16 Y A VGND VNB sky130_fd_pr__nfet_01v8 ad=0p pd=0u as=0p ps=0u w=650000u l=150000u
X17 VGND A Y VNB sky130_fd_pr__nfet_01v8 ad=0p pd=0u as=0p ps=0u w=650000u l=150000u
X18 VGND A Y VNB sky130_fd_pr__nfet_01v8 ad=0p pd=0u as=0p ps=0u w=650000u l=150000u
X19 Y A VPWR VPB sky130_fd_pr__pfet_01v8_hvt ad=0p pd=0u as=0p ps=0u w=1e+06u l=150000u
X20 VGND A Y VNB sky130_fd_pr__nfet_01v8 ad=0p pd=0u as=0p ps=0u w=650000u l=150000u
X21 Y A VPWR VPB sky130_fd_pr__pfet_01v8_hvt ad=0p pd=0u as=0p ps=0u w=1e+06u l=150000u
X22 VPWR A Y VPB sky130_fd_pr__pfet_01v8_hvt ad=0p pd=0u as=0p ps=0u w=1e+06u l=150000u
X23 VPWR A Y VPB sky130_fd_pr__pfet_01v8_hvt ad=0p pd=0u as=0p ps=0u w=1e+06u l=150000u
X24 VPWR A Y VPB sky130_fd_pr__pfet_01v8_hvt ad=0p pd=0u as=0p ps=0u w=1e+06u l=150000u
X25 Y A VGND VNB sky130_fd_pr__nfet_01v8 ad=0p pd=0u as=0p ps=0u w=650000u l=150000u
X26 Y A VPWR VPB sky130_fd_pr__pfet_01v8_hvt ad=0p pd=0u as=0p ps=0u w=1e+06u l=150000u
X27 Y A VGND VNB sky130_fd_pr__nfet_01v8 ad=0p pd=0u as=0p ps=0u w=650000u l=150000u
X28 Y A VGND VNB sky130_fd_pr__nfet_01v8 ad=0p pd=0u as=0p ps=0u w=650000u l=150000u
X29 Y A VGND VNB sky130_fd_pr__nfet_01v8 ad=0p pd=0u as=0p ps=0u w=650000u l=150000u
X30 VPWR A Y VPB sky130_fd_pr__pfet_01v8_hvt ad=0p pd=0u as=0p ps=0u w=1e+06u l=150000u
X31 Y A VGND VNB sky130_fd_pr__nfet_01v8 ad=0p pd=0u as=0p ps=0u w=650000u l=150000u
.ends

.subckt sky130_fd_sc_hd__inv_1#0 a_150_47# w_n38_261# a_68_47# a_68_297# w_42_21#
+ a_64_199# VSUBS
X0 a_150_47# a_64_199# a_68_47# VSUBS sky130_fd_pr__nfet_01v8 ad=0p pd=0u as=0p ps=0u w=650000u l=150000u
X1 a_150_47# a_64_199# a_68_297# w_n38_261# sky130_fd_pr__pfet_01v8_hvt ad=0p pd=0u as=0p ps=0u w=1e+06u l=150000u
.ends

.subckt sky130_fd_pr__pfet_01v8_hvt_UUWA33 a_n73_n100# a_15_n100# w_n109_n200# a_n33_n197#
X0 a_15_n100# a_n33_n197# a_n73_n100# w_n109_n200# sky130_fd_pr__pfet_01v8_hvt ad=0p pd=0u as=0p ps=0u w=1e+06u l=150000u
.ends

.subckt sky130_fd_pr__nfet_01v8_PX9ZJG a_63_n65# a_n125_n65# a_15_87# a_n81_n153#
+ a_n33_n65# w_n151_n91# VSUBS
X0 a_n33_n65# a_n81_n153# a_n125_n65# VSUBS sky130_fd_pr__nfet_01v8 ad=0p pd=0u as=0p ps=0u w=650000u l=150000u
X1 a_63_n65# a_15_87# a_n33_n65# VSUBS sky130_fd_pr__nfet_01v8 ad=0p pd=0u as=0p ps=0u w=650000u l=150000u
.ends

.subckt sky130_fd_pr__pfet_01v8_hvt_SH6FHF w_n161_n200# a_n125_n100# a_63_n100# a_15_131#
+ a_n33_n100# a_n81_n197#
X0 a_63_n100# a_15_131# a_n33_n100# w_n161_n200# sky130_fd_pr__pfet_01v8_hvt ad=0p pd=0u as=0p ps=0u w=1e+06u l=150000u
X1 a_n33_n100# a_n81_n197# a_n125_n100# w_n161_n200# sky130_fd_pr__pfet_01v8_hvt ad=0p pd=0u as=0p ps=0u w=1e+06u l=150000u
.ends

.subckt mux 2/VSUBS w_n54_614# w_18_n122# m1_46_n2# m1_76_558# m1_188_418# m1_n50_88#
+ a_28_318# sky130_fd_pr__nfet_01v8_PX9ZJG_1/w_n151_n91# VSUBS
X1 m1_188_418# m1_n50_88# a_28_318# m1_46_n2# m1_76_558# 1/w_n151_n91# 2/VSUBS sky130_fd_pr__nfet_01v8_PX9ZJG
X2 w_n54_614# m1_n50_88# m1_188_418# m1_46_n2# m1_76_558# a_28_318# sky130_fd_pr__pfet_01v8_hvt_SH6FHF
Xsky130_fd_pr__nfet_01v8_PX9ZJG_0 m1_188_418# m1_n50_88# a_28_318# m1_46_n2# m1_76_558#
+ sky130_fd_pr__nfet_01v8_PX9ZJG_0/w_n151_n91# 2/VSUBS sky130_fd_pr__nfet_01v8_PX9ZJG
Xsky130_fd_pr__nfet_01v8_PX9ZJG_1 m1_188_418# m1_n50_88# a_28_318# m1_46_n2# m1_76_558#
+ sky130_fd_pr__nfet_01v8_PX9ZJG_1/w_n151_n91# 2/VSUBS sky130_fd_pr__nfet_01v8_PX9ZJG
Xsky130_fd_pr__pfet_01v8_hvt_SH6FHF_0 w_n54_614# m1_n50_88# m1_188_418# m1_46_n2#
+ m1_76_558# a_28_318# sky130_fd_pr__pfet_01v8_hvt_SH6FHF
Xsky130_fd_pr__pfet_01v8_hvt_SH6FHF_1 w_n54_614# m1_n50_88# m1_188_418# m1_46_n2#
+ m1_76_558# a_28_318# sky130_fd_pr__pfet_01v8_hvt_SH6FHF
.ends

.subckt sky130_fd_sc_hd__buf_1 VGND VPWR X A VNB VPB a_27_47#
X0 VPWR A a_27_47# VPB sky130_fd_pr__pfet_01v8_hvt ad=0p pd=0u as=0p ps=0u w=790000u l=150000u
X1 X a_27_47# VGND VNB sky130_fd_pr__nfet_01v8 ad=0p pd=0u as=0p ps=0u w=520000u l=150000u
X2 X a_27_47# VPWR VPB sky130_fd_pr__pfet_01v8_hvt ad=0p pd=0u as=0p ps=0u w=790000u l=150000u
X3 VGND A a_27_47# VNB sky130_fd_pr__nfet_01v8 ad=0p pd=0u as=0p ps=0u w=520000u l=150000u
.ends

.subckt demux m1_188_418# 2/VSUBS w_n54_614# w_18_n122# m1_46_n2# m1_76_558# a_28_318#
+ 1/w_n151_n91# m1_n50_88# VSUBS
X1 m1_188_418# m1_n50_88# a_28_318# m1_46_n2# m1_76_558# 1/w_n151_n91# 2/VSUBS sky130_fd_pr__nfet_01v8_PX9ZJG
X2 w_n54_614# m1_n50_88# m1_188_418# m1_46_n2# m1_76_558# a_28_318# sky130_fd_pr__pfet_01v8_hvt_SH6FHF
Xsky130_fd_pr__nfet_01v8_PX9ZJG_0 m1_188_418# m1_n50_88# a_28_318# m1_46_n2# m1_76_558#
+ 1/w_n151_n91# 2/VSUBS sky130_fd_pr__nfet_01v8_PX9ZJG
Xsky130_fd_pr__nfet_01v8_PX9ZJG_1 m1_188_418# m1_n50_88# a_28_318# m1_46_n2# m1_76_558#
+ 1/w_n151_n91# 2/VSUBS sky130_fd_pr__nfet_01v8_PX9ZJG
Xsky130_fd_pr__pfet_01v8_hvt_SH6FHF_0 w_n54_614# m1_n50_88# m1_188_418# m1_46_n2#
+ m1_76_558# a_28_318# sky130_fd_pr__pfet_01v8_hvt_SH6FHF
Xsky130_fd_pr__pfet_01v8_hvt_SH6FHF_1 w_n54_614# m1_n50_88# m1_188_418# m1_46_n2#
+ m1_76_558# a_28_318# sky130_fd_pr__pfet_01v8_hvt_SH6FHF
.ends

.subckt unitcell2buf sky130_fd_sc_hd__nor2_1_3/a_109_297# sky130_fd_sc_hd__inv_1#0_1/w_42_21#
+ sky130_fd_sc_hd__nor2_1_2/a_109_297# demux_0/w_18_n122# demux_0/1/w_n151_n91# sky130_fd_sc_hd__buf_1_1/X
+ li_n460_n386# sky130_fd_sc_hd__buf_1_1/a_27_47# mux_0/sky130_fd_pr__nfet_01v8_PX9ZJG_1/w_n151_n91#
+ sky130_fd_sc_hd__buf_1_1/A sky130_fd_sc_hd__nor2_1_2/B li_80_172# sky130_fd_sc_hd__nor2_1_3/Y
+ m2_136_462# sky130_fd_sc_hd__buf_1_1/VPB mux_0/w_18_n122# sky130_fd_sc_hd__inv_1#0_0/w_42_21#
+ sky130_fd_sc_hd__nor2_1_3/A a_24_n198# sky130_fd_sc_hd__nor2_1_2/Y sky130_fd_sc_hd__nor2_1_3/B
+ VSUBS
Xsky130_fd_sc_hd__inv_1#0_0 li_80_172# sky130_fd_sc_hd__buf_1_1/VPB VSUBS sky130_fd_sc_hd__buf_1_1/VPB
+ sky130_fd_sc_hd__inv_1#0_0/w_42_21# a_24_n198# VSUBS sky130_fd_sc_hd__inv_1#0
Xsky130_fd_sc_hd__inv_1#0_1 a_24_n198# sky130_fd_sc_hd__buf_1_1/VPB VSUBS sky130_fd_sc_hd__buf_1_1/VPB
+ sky130_fd_sc_hd__inv_1#0_1/w_42_21# li_n460_n386# VSUBS sky130_fd_sc_hd__inv_1#0
Xsky130_fd_sc_hd__nor2_1_0 sky130_fd_sc_hd__nor2_1_3/B sky130_fd_sc_hd__nor2_1_3/Y
+ sky130_fd_sc_hd__nor2_1_3/A VSUBS sky130_fd_sc_hd__buf_1_1/VPB VSUBS sky130_fd_sc_hd__buf_1_1/VPB
+ sky130_fd_sc_hd__nor2_1_3/a_109_297# sky130_fd_sc_hd__nor2_1
Xsky130_fd_sc_hd__nor2_1_1 sky130_fd_sc_hd__nor2_1_2/B sky130_fd_sc_hd__nor2_1_2/Y
+ sky130_fd_sc_hd__nor2_1_3/A VSUBS sky130_fd_sc_hd__buf_1_1/VPB VSUBS sky130_fd_sc_hd__buf_1_1/VPB
+ sky130_fd_sc_hd__nor2_1_2/a_109_297# sky130_fd_sc_hd__nor2_1
Xsky130_fd_sc_hd__nor2_1_2 sky130_fd_sc_hd__nor2_1_2/B sky130_fd_sc_hd__nor2_1_2/Y
+ sky130_fd_sc_hd__nor2_1_3/A VSUBS sky130_fd_sc_hd__buf_1_1/VPB VSUBS sky130_fd_sc_hd__buf_1_1/VPB
+ sky130_fd_sc_hd__nor2_1_2/a_109_297# sky130_fd_sc_hd__nor2_1
Xsky130_fd_sc_hd__nor2_1_3 sky130_fd_sc_hd__nor2_1_3/B sky130_fd_sc_hd__nor2_1_3/Y
+ sky130_fd_sc_hd__nor2_1_3/A VSUBS sky130_fd_sc_hd__buf_1_1/VPB VSUBS sky130_fd_sc_hd__buf_1_1/VPB
+ sky130_fd_sc_hd__nor2_1_3/a_109_297# sky130_fd_sc_hd__nor2_1
Xsky130_fd_pr__pfet_01v8_hvt_UUWA33_0 sky130_fd_sc_hd__nor2_1_2/B sky130_fd_sc_hd__buf_1_1/VPB
+ sky130_fd_sc_hd__buf_1_1/VPB li_80_172# sky130_fd_pr__pfet_01v8_hvt_UUWA33
X1 sky130_fd_sc_hd__nor2_1_2/B sky130_fd_sc_hd__buf_1_1/VPB sky130_fd_sc_hd__buf_1_1/VPB
+ li_80_172# sky130_fd_pr__pfet_01v8_hvt_UUWA33
Xsky130_fd_pr__pfet_01v8_hvt_UUWA33_1 sky130_fd_sc_hd__buf_1_1/VPB sky130_fd_sc_hd__nor2_1_3/B
+ sky130_fd_sc_hd__buf_1_1/VPB a_24_n198# sky130_fd_pr__pfet_01v8_hvt_UUWA33
X2 sky130_fd_sc_hd__buf_1_1/VPB sky130_fd_sc_hd__nor2_1_3/B sky130_fd_sc_hd__buf_1_1/VPB
+ a_24_n198# sky130_fd_pr__pfet_01v8_hvt_UUWA33
Xmux_0 VSUBS sky130_fd_sc_hd__buf_1_1/VPB mux_0/w_18_n122# li_80_172# sky130_fd_sc_hd__buf_1_1/A
+ sky130_fd_sc_hd__nor2_1_3/Y sky130_fd_sc_hd__nor2_1_2/Y a_24_n198# mux_0/sky130_fd_pr__nfet_01v8_PX9ZJG_1/w_n151_n91#
+ mux_0/VSUBS mux
Xmux_1 VSUBS sky130_fd_sc_hd__buf_1_1/VPB mux_1/w_18_n122# li_80_172# sky130_fd_sc_hd__buf_1_1/A
+ sky130_fd_sc_hd__nor2_1_3/Y sky130_fd_sc_hd__nor2_1_2/Y a_24_n198# mux_1/sky130_fd_pr__nfet_01v8_PX9ZJG_1/w_n151_n91#
+ mux_1/VSUBS mux
Xsky130_fd_sc_hd__buf_1_0 VSUBS sky130_fd_sc_hd__buf_1_1/VPB sky130_fd_sc_hd__buf_1_1/X
+ sky130_fd_sc_hd__buf_1_1/A VSUBS sky130_fd_sc_hd__buf_1_1/VPB sky130_fd_sc_hd__buf_1_1/a_27_47#
+ sky130_fd_sc_hd__buf_1
Xsky130_fd_sc_hd__buf_1_1 VSUBS sky130_fd_sc_hd__buf_1_1/VPB sky130_fd_sc_hd__buf_1_1/X
+ sky130_fd_sc_hd__buf_1_1/A VSUBS sky130_fd_sc_hd__buf_1_1/VPB sky130_fd_sc_hd__buf_1_1/a_27_47#
+ sky130_fd_sc_hd__buf_1
Xsky130_fd_sc_hd__inv_1_0 li_80_172# sky130_fd_sc_hd__buf_1_1/VPB VSUBS sky130_fd_sc_hd__buf_1_1/VPB
+ sky130_fd_sc_hd__inv_1_0/w_42_21# a_24_n198# VSUBS sky130_fd_sc_hd__inv_1#0
Xsky130_fd_sc_hd__inv_1_1 a_24_n198# sky130_fd_sc_hd__buf_1_1/VPB VSUBS sky130_fd_sc_hd__buf_1_1/VPB
+ sky130_fd_sc_hd__inv_1_1/w_42_21# li_n460_n386# VSUBS sky130_fd_sc_hd__inv_1#0
Xdemux_0 sky130_fd_sc_hd__nor2_1_3/B VSUBS sky130_fd_sc_hd__buf_1_1/VPB demux_0/w_18_n122#
+ li_80_172# m2_136_462# a_24_n198# demux_0/1/w_n151_n91# sky130_fd_sc_hd__nor2_1_2/B
+ demux_0/VSUBS demux
Xdemux_1 sky130_fd_sc_hd__nor2_1_3/B VSUBS sky130_fd_sc_hd__buf_1_1/VPB demux_1/w_18_n122#
+ li_80_172# m2_136_462# a_24_n198# demux_1/1/w_n151_n91# sky130_fd_sc_hd__nor2_1_2/B
+ demux_1/VSUBS demux
.ends

.subckt unitcell2bufcut sky130_fd_sc_hd__nor2_1_3/a_109_297# sky130_fd_sc_hd__inv_1_1/w_42_21#
+ sky130_fd_sc_hd__nor2_1_2/a_109_297# sky130_fd_sc_hd__nor2_1_2/B demux_1/1/w_n151_n91#
+ a_24_n198# li_n460_n386# sky130_fd_sc_hd__buf_1_1/a_27_47# mux_1/sky130_fd_pr__nfet_01v8_PX9ZJG_1/w_n151_n91#
+ li_80_172# sky130_fd_sc_hd__buf_1_1/A sky130_fd_sc_hd__nor2_1_2/Y m2_136_462# sky130_fd_sc_hd__nor2_1_3/Y
+ sky130_fd_sc_hd__buf_1_1/VPB sky130_fd_sc_hd__buf_1_1/X sky130_fd_sc_hd__inv_1_0/w_42_21#
+ sky130_fd_sc_hd__nor2_1_3/A sky130_fd_sc_hd__nor2_1_3/B sky130_fd_sc_hd__buf_1_1/VGND
+ VSUBS
Xsky130_fd_sc_hd__inv_1#0_0 li_80_172# sky130_fd_sc_hd__buf_1_1/VPB sky130_fd_sc_hd__buf_1_1/VGND
+ sky130_fd_sc_hd__buf_1_1/VPB sky130_fd_sc_hd__inv_1_0/w_42_21# a_24_n198# VSUBS
+ sky130_fd_sc_hd__inv_1#0
Xsky130_fd_sc_hd__inv_1#0_1 a_24_n198# sky130_fd_sc_hd__buf_1_1/VPB sky130_fd_sc_hd__buf_1_1/VGND
+ sky130_fd_sc_hd__buf_1_1/VPB sky130_fd_sc_hd__inv_1_1/w_42_21# li_n460_n386# VSUBS
+ sky130_fd_sc_hd__inv_1#0
Xsky130_fd_sc_hd__nor2_1_0 sky130_fd_sc_hd__nor2_1_3/B sky130_fd_sc_hd__nor2_1_3/Y
+ sky130_fd_sc_hd__nor2_1_3/A sky130_fd_sc_hd__buf_1_1/VGND sky130_fd_sc_hd__buf_1_1/VPB
+ VSUBS sky130_fd_sc_hd__buf_1_1/VPB sky130_fd_sc_hd__nor2_1_3/a_109_297# sky130_fd_sc_hd__nor2_1
Xsky130_fd_sc_hd__nor2_1_1 sky130_fd_sc_hd__nor2_1_2/B sky130_fd_sc_hd__nor2_1_2/Y
+ sky130_fd_sc_hd__nor2_1_3/A sky130_fd_sc_hd__buf_1_1/VGND sky130_fd_sc_hd__buf_1_1/VPB
+ VSUBS sky130_fd_sc_hd__buf_1_1/VPB sky130_fd_sc_hd__nor2_1_2/a_109_297# sky130_fd_sc_hd__nor2_1
Xsky130_fd_sc_hd__nor2_1_2 sky130_fd_sc_hd__nor2_1_2/B sky130_fd_sc_hd__nor2_1_2/Y
+ sky130_fd_sc_hd__nor2_1_3/A sky130_fd_sc_hd__buf_1_1/VGND sky130_fd_sc_hd__buf_1_1/VPB
+ VSUBS sky130_fd_sc_hd__buf_1_1/VPB sky130_fd_sc_hd__nor2_1_2/a_109_297# sky130_fd_sc_hd__nor2_1
Xsky130_fd_sc_hd__nor2_1_3 sky130_fd_sc_hd__nor2_1_3/B sky130_fd_sc_hd__nor2_1_3/Y
+ sky130_fd_sc_hd__nor2_1_3/A sky130_fd_sc_hd__buf_1_1/VGND sky130_fd_sc_hd__buf_1_1/VPB
+ VSUBS sky130_fd_sc_hd__buf_1_1/VPB sky130_fd_sc_hd__nor2_1_3/a_109_297# sky130_fd_sc_hd__nor2_1
Xsky130_fd_pr__pfet_01v8_hvt_UUWA33_0 sky130_fd_sc_hd__nor2_1_2/B sky130_fd_sc_hd__buf_1_1/VPB
+ sky130_fd_sc_hd__buf_1_1/VPB li_80_172# sky130_fd_pr__pfet_01v8_hvt_UUWA33
X1 sky130_fd_sc_hd__nor2_1_2/B sky130_fd_sc_hd__buf_1_1/VPB sky130_fd_sc_hd__buf_1_1/VPB
+ li_80_172# sky130_fd_pr__pfet_01v8_hvt_UUWA33
Xsky130_fd_pr__pfet_01v8_hvt_UUWA33_1 sky130_fd_sc_hd__buf_1_1/VPB sky130_fd_sc_hd__nor2_1_3/B
+ sky130_fd_sc_hd__buf_1_1/VPB a_24_n198# sky130_fd_pr__pfet_01v8_hvt_UUWA33
X2 sky130_fd_sc_hd__buf_1_1/VPB sky130_fd_sc_hd__nor2_1_3/B sky130_fd_sc_hd__buf_1_1/VPB
+ a_24_n198# sky130_fd_pr__pfet_01v8_hvt_UUWA33
Xmux_0 mux_0/2/VSUBS sky130_fd_sc_hd__buf_1_1/VPB sky130_fd_sc_hd__buf_1_1/VGND li_80_172#
+ sky130_fd_sc_hd__buf_1_1/A sky130_fd_sc_hd__nor2_1_3/Y sky130_fd_sc_hd__nor2_1_2/Y
+ a_24_n198# mux_1/sky130_fd_pr__nfet_01v8_PX9ZJG_1/w_n151_n91# VSUBS mux
Xmux_1 mux_1/2/VSUBS sky130_fd_sc_hd__buf_1_1/VPB sky130_fd_sc_hd__buf_1_1/VGND li_80_172#
+ sky130_fd_sc_hd__buf_1_1/A sky130_fd_sc_hd__nor2_1_3/Y sky130_fd_sc_hd__nor2_1_2/Y
+ a_24_n198# mux_1/sky130_fd_pr__nfet_01v8_PX9ZJG_1/w_n151_n91# VSUBS mux
Xsky130_fd_sc_hd__buf_1_0 sky130_fd_sc_hd__buf_1_1/VGND sky130_fd_sc_hd__buf_1_1/VPB
+ sky130_fd_sc_hd__buf_1_1/X sky130_fd_sc_hd__buf_1_1/A VSUBS sky130_fd_sc_hd__buf_1_1/VPB
+ sky130_fd_sc_hd__buf_1_1/a_27_47# sky130_fd_sc_hd__buf_1
Xsky130_fd_sc_hd__buf_1_1 sky130_fd_sc_hd__buf_1_1/VGND sky130_fd_sc_hd__buf_1_1/VPB
+ sky130_fd_sc_hd__buf_1_1/X sky130_fd_sc_hd__buf_1_1/A VSUBS sky130_fd_sc_hd__buf_1_1/VPB
+ sky130_fd_sc_hd__buf_1_1/a_27_47# sky130_fd_sc_hd__buf_1
Xsky130_fd_sc_hd__inv_1_0 li_80_172# sky130_fd_sc_hd__buf_1_1/VPB sky130_fd_sc_hd__buf_1_1/VGND
+ sky130_fd_sc_hd__buf_1_1/VPB sky130_fd_sc_hd__inv_1_0/w_42_21# a_24_n198# VSUBS